Version 4
SHEET 1 880 680
WIRE 96 -176 64 -176
WIRE 208 -176 176 -176
WIRE 368 -176 208 -176
WIRE 416 -176 368 -176
WIRE 512 -176 480 -176
WIRE 368 -64 368 -176
WIRE 400 -64 368 -64
WIRE 512 -64 512 -176
WIRE 512 -64 480 -64
WIRE 288 -32 288 -48
WIRE 208 16 208 -176
WIRE 256 16 208 16
WIRE 512 48 512 -64
WIRE 512 48 400 48
WIRE 544 48 512 48
WIRE -128 80 -192 80
WIRE 0 80 -48 80
WIRE 96 80 64 80
WIRE 176 80 96 80
WIRE 256 80 176 80
WIRE 96 112 96 80
WIRE 176 112 176 80
WIRE -432 128 -432 96
WIRE -304 128 -304 96
WIRE -192 128 -192 80
WIRE 288 160 288 128
WIRE 336 160 336 128
WIRE 96 208 96 192
WIRE 176 208 176 176
WIRE 176 208 96 208
WIRE 96 224 96 208
WIRE -432 240 -432 208
WIRE -304 240 -304 208
WIRE -192 240 -192 208
FLAG 288 160 0
FLAG 336 160 0
FLAG -304 240 0
FLAG -304 96 +3V3
FLAG 288 -48 +3V3
FLAG -192 240 0
FLAG -432 240 0
FLAG -432 96 +1V6
FLAG 96 224 +1V6
FLAG 64 -176 +1V6
FLAG 544 48 out
SYMBOL voltage -304 112 R0
WINDOW 123 0 0 Left 2
WINDOW 39 0 0 Left 2
SYMATTR InstName V1
SYMATTR Value 3.3
SYMBOL voltage -192 112 R0
WINDOW 123 24 124 Left 2
WINDOW 39 0 0 Left 2
SYMATTR Value2 AC 1.
SYMATTR InstName V2
SYMATTR Value SINE(0 10m 40k)
SYMBOL res -32 64 R90
WINDOW 0 0 56 VBottom 2
WINDOW 3 32 56 VTop 2
SYMATTR InstName R1
SYMATTR Value 1000
SYMBOL cap 64 64 R90
WINDOW 0 0 32 VBottom 2
WINDOW 3 32 32 VTop 2
SYMATTR InstName C1
SYMATTR Value 10n
SYMBOL res 80 96 R0
SYMATTR InstName R2
SYMATTR Value 10k
SYMBOL voltage -432 112 R0
WINDOW 123 0 0 Left 2
WINDOW 39 0 0 Left 2
SYMATTR InstName V3
SYMATTR Value 1.65
SYMBOL res 496 -80 R90
WINDOW 0 0 56 VBottom 2
WINDOW 3 32 56 VTop 2
SYMATTR InstName R3
SYMATTR Value 2k
SYMBOL res 192 -192 R90
WINDOW 0 0 56 VBottom 2
WINDOW 3 32 56 VTop 2
SYMATTR InstName R4
SYMATTR Value 50
SYMBOL Opamps\\LT6233-10 288 48 R0
SYMATTR InstName U1
SYMBOL cap 160 112 R0
SYMATTR InstName C2
SYMATTR Value 1n
TEXT -432 304 Left 2 !.ac oct 100 100 100meg
TEXT -720 240 Left 2 !;tran 0 100m 99m startup
