Version 4
SHEET 1 880 680
WIRE 176 -80 176 -112
WIRE 224 -16 192 -16
WIRE 16 64 -16 64
WIRE 112 64 96 64
WIRE 192 64 192 -16
WIRE 192 64 112 64
WIRE 208 64 192 64
WIRE 304 64 304 -16
WIRE 304 64 288 64
WIRE 368 64 304 64
WIRE 496 64 448 64
WIRE -16 80 -16 64
WIRE 496 80 496 64
WIRE 176 144 176 0
WIRE 112 160 112 64
WIRE 144 160 112 160
WIRE 496 160 496 144
WIRE 304 176 304 64
WIRE 304 176 208 176
WIRE 144 192 -16 192
WIRE 176 240 176 208
WIRE -16 288 -16 272
FLAG 176 240 0
FLAG 176 -112 0
FLAG -16 80 0
FLAG -16 288 0
FLAG 496 160 0
SYMBOL res 112 48 R90
WINDOW 0 0 56 VBottom 2
WINDOW 3 32 56 VTop 2
SYMATTR InstName R1
SYMATTR Value 3k3
SYMBOL res 304 48 R90
WINDOW 0 0 56 VBottom 2
WINDOW 3 32 56 VTop 2
SYMATTR InstName R2
SYMATTR Value 8k2
SYMBOL voltage 176 16 R180
WINDOW 0 24 96 Left 2
WINDOW 3 24 16 Left 2
WINDOW 123 0 0 Left 2
WINDOW 39 0 0 Left 2
SYMATTR InstName V1
SYMATTR Value 10
SYMBOL voltage -16 176 R0
WINDOW 123 0 0 Left 2
WINDOW 39 0 0 Left 2
SYMATTR InstName V2
SYMATTR Value AC 1.
SYMBOL Opamps\\LT1007 176 112 R0
SYMATTR InstName U1
SYMBOL cap 288 -32 R90
WINDOW 0 0 32 VBottom 2
WINDOW 3 32 32 VTop 2
SYMATTR InstName C1
SYMATTR Value 1n
SYMBOL res 464 48 R90
WINDOW 0 0 56 VBottom 2
WINDOW 3 32 56 VTop 2
SYMATTR InstName R3
SYMATTR Value 330
SYMBOL cap 480 80 R0
SYMATTR InstName C2
SYMATTR Value 1n
TEXT 144 312 Left 2 !.ac oct 100 1k 100meg
